CM 10m VDA
CM 
CE
GW	1	15	0.15729136	7.2583e-17	1.37277547	0.75	-6.749e-17	3.75	2.5e-4
GW	2	15	0.75	-6.749e-17	3.75	0.15729136	5.092e-18	6.12722452	2.5e-4
GW	3	15	-0.1185838	0	1.21752814	-0.75	0	3.75	2.5e-4
GW	4	15	-0.75	0	3.75	-0.1185839	0	6.28247183	2.5e-4
GE	-1
LD	5	0	0	0	58000000
GN	2	0	0	0	13	0.005
EK
EX	6	2	1	0	1	0	0	0
FR	0	0	0	0	28.1	0
EN
